OPT_V9/Results/My_campus_w_initial_sub_3_active_27_03_15_38/powerflow_results_t2.txt
Pandapower Network Debug Info
==================================================

BUS:
       vm_pu  va_degree      p_mw    q_mvar
0   1.007962   0.137501 -0.006198 -0.006026
1   1.010530   0.297946 -0.002383 -0.000005
2   1.012328   0.448346 -0.002694  0.000868
3   1.009252   0.194693 -0.001950  0.000000
4   1.002800   0.198668 -0.001955  0.000943
5   1.002869   0.098295 -0.001468  0.001841
6   1.006101   0.060345 -0.001950 -0.002288
7   1.003407  -0.018062 -0.002953 -0.002770
8   1.001324   0.027380 -0.004324 -0.003052
9   0.999949   0.000836  0.008493  0.008514
10  0.999941   0.000895  0.010411  0.008342
11  0.999938   0.000973  0.002382  0.004617
12  0.999961  -0.000114  0.010144  0.003710
13  0.999957  -0.000079  0.007049  0.003952
14  0.999954  -0.000079  0.003551  0.002774
15  0.999979   0.000620  0.000000  0.000000
16  0.999979   0.000618  0.000000  0.000000
17  0.999965  -0.000031  0.000000  0.000000
18  0.999965  -0.000034  0.000000  0.000000
19  1.000000   0.000000 -0.008200 -0.021402
20  1.000000   0.000003  0.000000  0.000000
21  1.000000   0.000000 -0.008155 -0.010141
22  1.000000   0.000001  0.000000  0.000000
--------------------------------------------------

LINE:
    p_from_mw   q_from_mvar   p_to_mw  q_to_mvar         pl_mw       ql_mvar  i_from_ka   i_to_ka      i_ka  vm_from_pu  va_from_degree  vm_to_pu  va_to_degree  loading_percent
0    0.008190  1.740198e-02 -0.008189  -0.017402  3.618094e-07  2.821088e-07   0.000740  0.000740  0.000740    1.000000        0.000003  0.999979      0.000620         0.321856
1    0.008145  6.140868e-03 -0.008145  -0.006141  2.798754e-07  2.182235e-07   0.000393  0.000393  0.000393    1.000000        0.000001  0.999965     -0.000031         0.170701
2    0.021287  2.147340e-02 -0.021286  -0.021473  7.069854e-07  5.512482e-07   0.001164  0.001164  0.001164    0.999979        0.000620  0.999949      0.000836         0.506007
3    0.010144  3.709591e-03 -0.010144  -0.003710  4.034550e-08  3.145805e-08   0.000416  0.000416  0.000416    0.999965       -0.000031  0.999961     -0.000114         0.180755
4    0.010600  6.725719e-03 -0.010600  -0.006726  8.618229e-08  6.719775e-08   0.000483  0.000483  0.000483    0.999965       -0.000031  0.999957     -0.000079         0.210096
5   -0.013107 -5.071609e-03  0.013200   0.005144  9.239062e-05  7.203849e-05   0.020286  0.020286  0.020286    0.999979        0.000618  1.007962      0.137501         8.820075
6   -0.003402 -4.342357e-04  0.003411   0.000441  9.125711e-06  7.115467e-06   0.004950  0.004950  0.004950    0.999965       -0.000034  1.002869      0.098295         2.152312
7   -0.002942 -2.760980e-03  0.002953   0.002770  1.099727e-05  8.574756e-06   0.005823  0.005823  0.005823    0.999965       -0.000034  1.003407     -0.018062         2.531902
8   -0.006266 -2.099326e-03  0.006273   0.002105  7.508982e-06  5.854877e-06   0.009539  0.009539  0.009539    0.999965       -0.000034  1.001324      0.027380         4.147217
9   -0.012793 -1.295857e-02  0.012793   0.012959  1.146794e-07  8.941740e-08   0.000701  0.000701  0.000701    0.999941        0.000895  0.999949      0.000836         0.304745
10  -0.002382 -4.616600e-03  0.002382   0.004617  1.319923e-08  1.029166e-08   0.000200  0.000200  0.000200    0.999938        0.000973  0.999941      0.000895         0.086938
11  -0.003551 -2.773846e-03  0.003551   0.002774  9.930305e-09  7.742823e-09   0.000173  0.000173  0.000173    0.999954       -0.000079  0.999957     -0.000079         0.075408
12   0.005069 -8.684366e-04 -0.005054   0.000880  1.532593e-05  1.194988e-05   0.007346  0.007346  0.007346    1.010530        0.297946  1.007962      0.137501         3.194050
13   0.001950  8.083324e-10 -0.001948   0.000002  2.493794e-06  1.944452e-06   0.002789  0.002789  0.002789    1.009252        0.194693  1.007962      0.137501         1.212820
14   0.002694 -8.683261e-04 -0.002686   0.000874  7.069621e-06  5.512300e-06   0.004035  0.004035  0.004035    1.012328        0.448346  1.010530      0.297946         1.754376
15  -0.001949  9.471190e-04  0.001955  -0.000943  5.700319e-06  4.444632e-06   0.003124  0.003124  0.003124    1.001324        0.027380  1.002800      0.198668         1.358313
16   0.001950  2.288444e-03 -0.001943  -0.002282  7.776464e-06  6.063437e-06   0.004314  0.004314  0.004314    1.006101        0.060345  1.002869      0.098295         1.875546
--------------------------------------------------

TRAFO:
    p_hv_mw  q_hv_mvar   p_lv_mw  q_lv_mvar    pl_mw  ql_mvar   i_hv_ka   i_lv_ka  vm_hv_pu  va_hv_degree  vm_lv_pu  va_lv_degree  loading_percent
0 -0.013097  -0.004072  0.013107   0.005072  0.00001    0.001  0.000528  0.020286  0.999979      0.000620  0.999979      0.000618         0.140547
1 -0.012600  -0.004295  0.012610   0.005295  0.00001    0.001  0.000512  0.019740  0.999965     -0.000031  0.999965     -0.000034         0.136765
2  0.008200   0.021402 -0.008190  -0.017402  0.00001    0.004  0.000189  0.000740  1.000000      0.000000  1.000000      0.000003         0.057297
3  0.008155   0.010141 -0.008145  -0.006141  0.00001    0.004  0.000107  0.000393  1.000000      0.000000  1.000000      0.000001         0.032532
--------------------------------------------------
